OPT_V10/Two_days_MCY3_MIQCPM1/powerflow_results_t41.txt
Pandapower Network Debug Info
==================================================

BUS:
       vm_pu  va_degree      p_mw    q_mvar
0   0.993191   0.114821  0.000811  0.001108
1   0.988898   0.189446  0.001482  0.001685
2   0.984895   0.276333  0.001918  0.003128
3   0.989543   0.176459  0.002594  0.003606
4   0.999890   0.001375  0.008110  0.011793
5   0.999877   0.001480  0.010560  0.010751
6   0.999868   0.001556  0.009959  0.010505
7   0.999932   0.000900  0.000000  0.000000
8   0.999932   0.000906  0.000000  0.000000
9   1.000000   0.000000 -0.035572 -0.047669
10  1.000000   0.000007  0.000000  0.000000
--------------------------------------------------

LINE:
   p_from_mw  q_from_mvar   p_to_mw  q_to_mvar         pl_mw       ql_mvar  i_from_ka   i_to_ka      i_ka  vm_from_pu  va_from_degree  vm_to_pu  va_to_degree  loading_percent
0   0.035562     0.043669 -0.035559  -0.043666  3.102287e-06  2.418904e-06   0.002168  0.002168  0.002168    1.000000        0.000007  0.999932      0.000900         0.942459
1   0.028631     0.033051 -0.028629  -0.033050  1.478783e-06  1.153031e-06   0.001683  0.001683  0.001683    0.999932        0.000900  0.999890      0.001375         0.731819
2   0.006918     0.009616 -0.006853  -0.009565  6.564207e-05  5.118221e-05   0.017099  0.017099  0.017099    0.999932        0.000906  0.993191      0.114821         7.434461
3  -0.020519    -0.021257  0.020519   0.021257  3.019365e-07  2.354249e-07   0.001137  0.001137  0.001137    0.999877        0.001480  0.999890      0.001375         0.494483
4  -0.009959    -0.010505  0.009959   0.010505  1.025097e-07  7.992850e-08   0.000557  0.000557  0.000557    0.999868        0.001556  0.999877      0.001480         0.242281
5  -0.003413    -0.004823  0.003434   0.004840  2.111959e-05  1.646729e-05   0.008624  0.008624  0.008624    0.988898        0.189446  0.993191      0.114821         3.749480
6  -0.002594    -0.003606  0.002607   0.003617  1.345456e-05  1.049074e-05   0.006479  0.006479  0.006479    0.989543        0.176459  0.993191      0.114821         2.817089
7  -0.001918    -0.003128  0.001930   0.003138  1.255507e-05  9.789396e-06   0.005377  0.005377  0.005377    0.984895        0.276333  0.988898      0.189446         2.337945
--------------------------------------------------

TRAFO:
    p_hv_mw  q_hv_mvar   p_lv_mw  q_lv_mvar    pl_mw  ql_mvar   i_hv_ka   i_lv_ka  vm_hv_pu  va_hv_degree  vm_lv_pu  va_lv_degree  loading_percent
0  0.006928   0.010616 -0.006918  -0.009616  0.00001    0.001  0.000488  0.017099  0.999932        0.0009  0.999932      0.000906         0.126773
1  0.035572   0.047669 -0.035562  -0.043669  0.00001    0.004  0.000491  0.002168  1.000000        0.0000  1.000000      0.000007         0.148696
--------------------------------------------------
